CHEMBL1232829
     RDKit          3D

 60 64  0  0  0  0  0  0  0  0999 V2000
   -1.7453    4.0452   -0.4318 C   0  0  0  0  0  0  0  0  0  0  0  0
   -2.2739    3.7417    0.9614 C   0  0  0  0  0  0  0  0  0  0  0  0
   -2.1463    2.2967    1.2897 C   0  0  0  0  0  0  0  0  0  0  0  0
   -1.0774    1.9585    2.0631 O   0  0  0  0  0  0  0  0  0  0  0  0
   -1.1154    0.6141    2.2428 C   0  0  0  0  0  0  0  0  0  0  0  0
   -0.1722   -0.1208    2.9538 C   0  0  0  0  0  0  0  0  0  0  0  0
   -0.3782   -1.5053    2.9864 C   0  0  0  0  0  0  0  0  0  0  0  0
    0.8587   -2.5444    3.7387 S   0  0  0  0  0  0  0  0  0  0  0  0
    1.7422   -1.7066    4.5187 O   0  0  0  0  0  0  0  0  0  0  0  0
    0.1740   -3.6752    4.3283 O   0  0  0  0  0  0  0  0  0  0  0  0
    1.7038   -3.1500    2.4005 N   0  0  0  0  0  0  0  0  0  0  0  0
    2.1071   -2.2427    1.3809 C   0  0  0  0  0  0  0  0  0  0  0  0
    3.0184   -1.2208    1.6495 C   0  0  0  0  0  0  0  0  0  0  0  0
    3.3087   -0.2693    0.6698 C   0  0  0  0  0  0  0  0  0  0  0  0
    2.6927   -0.3566   -0.5818 C   0  0  0  0  0  0  0  0  0  0  0  0
    2.9941    0.9078   -1.7931 S   0  0  0  0  0  0  0  0  0  0  0  0
    1.9316    0.8217   -2.7776 O   0  0  0  0  0  0  0  0  0  0  0  0
    3.2518    2.1563   -1.1098 O   0  0  0  0  0  0  0  0  0  0  0  0
    4.3679    0.3357   -2.5716 N   0  0  0  0  0  0  0  0  0  0  0  0
    5.5712    1.0032   -2.1401 C   0  0  0  0  0  0  0  0  0  0  0  0
    6.0946    0.7524   -0.9667 N   0  0  0  0  0  0  0  0  0  0  0  0
    7.2465    1.5005   -0.8199 C   0  0  0  0  0  0  0  0  0  0  0  0
    7.5930    2.2781   -1.9043 C   0  0  0  0  0  0  0  0  0  0  0  0
    6.4384    2.0640   -3.1560 S   0  0  0  0  0  0  0  0  0  0  0  0
    1.7896   -1.3863   -0.8604 C   0  0  0  0  0  0  0  0  0  0  0  0
    1.5024   -2.3338    0.1238 C   0  0  0  0  0  0  0  0  0  0  0  0
   -1.5093   -2.1001    2.4158 C   0  0  0  0  0  0  0  0  0  0  0  0
   -2.4438   -1.3190    1.7226 C   0  0  0  0  0  0  0  0  0  0  0  0
   -2.2224    0.0697    1.6016 C   0  0  0  0  0  0  0  0  0  0  0  0
   -2.8694    1.1663    0.9411 C   0  0  0  0  0  0  0  0  0  0  0  0
   -4.0331    1.1737    0.0705 C   0  0  0  0  0  0  0  0  0  0  0  0
   -4.8706    2.0707    0.0928 O   0  0  0  0  0  0  0  0  0  0  0  0
   -4.2121    0.0612   -0.9001 C   0  0  0  0  0  0  0  0  0  0  0  0
   -3.1166   -0.5309   -1.5427 C   0  0  0  0  0  0  0  0  0  0  0  0
   -3.3205   -1.5876   -2.4326 C   0  0  0  0  0  0  0  0  0  0  0  0
   -1.7979   -2.3878   -3.2324 Br  0  0  0  0  0  0  0  0  0  0  0  0
   -4.6148   -2.0378   -2.7063 C   0  0  0  0  0  0  0  0  0  0  0  0
   -4.7950   -3.0793   -3.5768 O   0  0  0  0  0  0  0  0  0  0  0  0
   -5.7072   -1.4203   -2.0886 C   0  0  0  0  0  0  0  0  0  0  0  0
   -7.4769   -2.0001   -2.4442 Br  0  0  0  0  0  0  0  0  0  0  0  0
   -5.5116   -0.3711   -1.1901 C   0  0  0  0  0  0  0  0  0  0  0  0
   -2.3089    3.5022   -1.1987 H   0  0  0  0  0  0  0  0  0  0  0  0
   -1.8293    5.1154   -0.6446 H   0  0  0  0  0  0  0  0  0  0  0  0
   -0.6917    3.7608   -0.5261 H   0  0  0  0  0  0  0  0  0  0  0  0
   -3.3223    4.0509    1.0349 H   0  0  0  0  0  0  0  0  0  0  0  0
   -1.7191    4.3395    1.6952 H   0  0  0  0  0  0  0  0  0  0  0  0
    0.6866    0.3599    3.4090 H   0  0  0  0  0  0  0  0  0  0  0  0
    1.3506   -4.0611    2.1153 H   0  0  0  0  0  0  0  0  0  0  0  0
    3.4982   -1.1467    2.6232 H   0  0  0  0  0  0  0  0  0  0  0  0
    4.0067    0.5363    0.8908 H   0  0  0  0  0  0  0  0  0  0  0  0
    4.2228    0.3370   -3.5781 H   0  0  0  0  0  0  0  0  0  0  0  0
    7.8039    1.4383    0.1072 H   0  0  0  0  0  0  0  0  0  0  0  0
    8.4419    2.9360   -2.0193 H   0  0  0  0  0  0  0  0  0  0  0  0
    1.2985   -1.4499   -1.8286 H   0  0  0  0  0  0  0  0  0  0  0  0
    0.7848   -3.1200   -0.0941 H   0  0  0  0  0  0  0  0  0  0  0  0
   -1.6645   -3.1751    2.4907 H   0  0  0  0  0  0  0  0  0  0  0  0
   -3.3144   -1.7934    1.2774 H   0  0  0  0  0  0  0  0  0  0  0  0
   -2.1062   -0.1720   -1.3584 H   0  0  0  0  0  0  0  0  0  0  0  0
   -5.7528   -3.2400   -3.6655 H   0  0  0  0  0  0  0  0  0  0  0  0
   -6.3616    0.1103   -0.7095 H   0  0  0  0  0  0  0  0  0  0  0  0
  1  2  1  0
  2  3  1  0
  3  4  1  0
  4  5  1  0
  5  6  2  0
  6  7  1  0
  7  8  1  0
  8  9  2  0
  8 10  2  0
  8 11  1  0
 11 12  1  0
 12 13  2  0
 13 14  1  0
 14 15  2  0
 15 16  1  0
 16 17  2  0
 16 18  2  0
 16 19  1  0
 19 20  1  0
 20 21  2  0
 21 22  1  0
 22 23  2  0
 23 24  1  0
 15 25  1  0
 25 26  2  0
  7 27  2  0
 27 28  1  0
 28 29  2  0
 29 30  1  0
 30 31  1  0
 31 32  2  0
 31 33  1  0
 33 34  2  0
 34 35  1  0
 35 36  1  0
 35 37  2  0
 37 38  1  0
 37 39  1  0
 39 40  1  0
 39 41  2  0
 30  3  2  0
 41 33  1  0
 29  5  1  0
 26 12  1  0
 24 20  1  0
  1 42  1  0
  1 43  1  0
  1 44  1  0
  2 45  1  0
  2 46  1  0
  6 47  1  0
 11 48  1  0
 13 49  1  0
 14 50  1  0
 19 51  1  0
 22 52  1  0
 23 53  1  0
 25 54  1  0
 26 55  1  0
 27 56  1  0
 28 57  1  0
 34 58  1  0
 38 59  1  0
 41 60  1  0
M  END
>  <IC50_nM>  (1) 
2000.0

$$$$
CHEMBL598832
     RDKit          3D

 45 48  0  0  0  0  0  0  0  0999 V2000
   -2.9573   -3.6337   -3.0110 C   0  0  0  0  0  0  0  0  0  0  0  0
   -2.5920   -2.1666   -3.1670 C   0  0  0  0  0  0  0  0  0  0  0  0
   -1.5859   -1.7445   -2.1557 C   0  0  0  0  0  0  0  0  0  0  0  0
   -0.2844   -1.9157   -2.5156 O   0  0  0  0  0  0  0  0  0  0  0  0
    0.4816   -1.4986   -1.4760 C   0  0  0  0  0  0  0  0  0  0  0  0
    1.8736   -1.5225   -1.4566 C   0  0  0  0  0  0  0  0  0  0  0  0
    2.4758   -1.0519   -0.2847 C   0  0  0  0  0  0  0  0  0  0  0  0
    4.2482   -1.0524   -0.1667 S   0  0  0  0  0  0  0  0  0  0  0  0
    4.6305   -1.0797    1.2285 O   0  0  0  0  0  0  0  0  0  0  0  0
    4.7419   -2.0670   -1.0767 O   0  0  0  0  0  0  0  0  0  0  0  0
    4.6512    0.4143   -0.8719 N   0  0  0  0  0  0  0  0  0  0  0  0
    4.8194    1.4844    0.0770 C   0  0  0  0  0  0  0  0  0  0  0  0
    3.8094    1.9320    0.7800 N   0  0  0  0  0  0  0  0  0  0  0  0
    4.2396    2.9815    1.5689 C   0  0  0  0  0  0  0  0  0  0  0  0
    5.5662    3.3300    1.4241 C   0  0  0  0  0  0  0  0  0  0  0  0
    6.3016    2.3122    0.2545 S   0  0  0  0  0  0  0  0  0  0  0  0
    1.7186   -0.6260    0.8117 C   0  0  0  0  0  0  0  0  0  0  0  0
    0.3180   -0.6233    0.7524 C   0  0  0  0  0  0  0  0  0  0  0  0
   -0.3202   -1.0510   -0.4310 C   0  0  0  0  0  0  0  0  0  0  0  0
   -1.6738   -1.1793   -0.8913 C   0  0  0  0  0  0  0  0  0  0  0  0
   -2.9279   -0.8525   -0.2305 C   0  0  0  0  0  0  0  0  0  0  0  0
   -3.9573   -1.4963   -0.4156 O   0  0  0  0  0  0  0  0  0  0  0  0
   -2.9922    0.3066    0.6954 C   0  0  0  0  0  0  0  0  0  0  0  0
   -2.3151    1.5017    0.4210 C   0  0  0  0  0  0  0  0  0  0  0  0
   -2.4083    2.5726    1.3137 C   0  0  0  0  0  0  0  0  0  0  0  0
   -1.4480    4.1583    0.9128 Br  0  0  0  0  0  0  0  0  0  0  0  0
   -3.1901    2.4635    2.4670 C   0  0  0  0  0  0  0  0  0  0  0  0
   -3.2662    3.5225    3.3320 O   0  0  0  0  0  0  0  0  0  0  0  0
   -3.8861    1.2776    2.7212 C   0  0  0  0  0  0  0  0  0  0  0  0
   -4.9654    1.0993    4.2694 Br  0  0  0  0  0  0  0  0  0  0  0  0
   -3.7948    0.2016    1.8384 C   0  0  0  0  0  0  0  0  0  0  0  0
   -3.6939   -3.9238   -3.7670 H   0  0  0  0  0  0  0  0  0  0  0  0
   -2.0775   -4.2753   -3.1306 H   0  0  0  0  0  0  0  0  0  0  0  0
   -3.3863   -3.8352   -2.0238 H   0  0  0  0  0  0  0  0  0  0  0  0
   -2.1924   -1.9980   -4.1741 H   0  0  0  0  0  0  0  0  0  0  0  0
   -3.4937   -1.5501   -3.0829 H   0  0  0  0  0  0  0  0  0  0  0  0
    2.4406   -1.8854   -2.3057 H   0  0  0  0  0  0  0  0  0  0  0  0
    5.4050    0.3006   -1.5438 H   0  0  0  0  0  0  0  0  0  0  0  0
    3.5364    3.4664    2.2357 H   0  0  0  0  0  0  0  0  0  0  0  0
    6.1175    4.1116    1.9265 H   0  0  0  0  0  0  0  0  0  0  0  0
    2.2128   -0.2811    1.7196 H   0  0  0  0  0  0  0  0  0  0  0  0
   -0.2480   -0.2930    1.6186 H   0  0  0  0  0  0  0  0  0  0  0  0
   -1.7212    1.6065   -0.4845 H   0  0  0  0  0  0  0  0  0  0  0  0
   -3.8676    3.2795    4.0595 H   0  0  0  0  0  0  0  0  0  0  0  0
   -4.3423   -0.7196    2.0319 H   0  0  0  0  0  0  0  0  0  0  0  0
  1  2  1  0
  2  3  1  0
  3  4  1  0
  4  5  1  0
  5  6  2  0
  6  7  1  0
  7  8  1  0
  8  9  2  0
  8 10  2  0
  8 11  1  0
 11 12  1  0
 12 13  2  0
 13 14  1  0
 14 15  2  0
 15 16  1  0
  7 17  2  0
 17 18  1  0
 18 19  2  0
 19 20  1  0
 20 21  1  0
 21 22  2  0
 21 23  1  0
 23 24  2  0
 24 25  1  0
 25 26  1  0
 25 27  2  0
 27 28  1  0
 27 29  1  0
 29 30  1  0
 29 31  2  0
 20  3  2  0
 31 23  1  0
 19  5  1  0
 16 12  1  0
  1 32  1  0
  1 33  1  0
  1 34  1  0
  2 35  1  0
  2 36  1  0
  6 37  1  0
 11 38  1  0
 14 39  1  0
 15 40  1  0
 17 41  1  0
 18 42  1  0
 24 43  1  0
 28 44  1  0
 31 45  1  0
M  END
>  <IC50_nM>  (2) 
3000.0

$$$$
